*MODEL INPUT FILE            A     3     1     3     3     0
*FILES              
MODEL          MZCER047
FILEX          KSRT2001.SBX                                                                                 
FILEA          KSRT2001.SBA                                                                                 
FILET          KSRT2001.SBT                                                                                 
SPECIES        MZCER047.SPE ///home/ztz/dssat_kcb/dssat/Genotype/                                           
ECOTYPE        MZCER047.ECO ///home/ztz/dssat_kcb/dssat/Genotype/                                           
CULTIVAR       MZCER047.CUL ///home/ztz/dssat_kcb/dssat/Genotype/                                           
PESTS          MZCER047.PST ///home/ztz/dssat_kcb/dssat/Pest/                                               
SOILS          KS.SOL       ///home/ztz/dssat_kcb/dssat/Soil/                                               
WEATHERW       RT012001.WTH ///home/ztz/dssat_kcb/dssat/Weather/                                            
OUTPUT         OVERVIEW
*SIMULATION CONTROL 
                   1     1     S 2020106  2150 ROTH TECH FARM SIMULATION
                   Y     Y     N     N     N     N     N     Y     M
                   M     M     E     S     S     C     R     1     G     S     2     D     0
                   R     R     R     N     M
                   N     Y     Y     1     Y     Y     Y     Y     N     N     Y     N     Y
!AUTOMATIC MANAGEM  
                   -99     -99   40.  100.   30.   40.   10.
                120.   50.  100. IB004 IB004  25.0 0.750
                 30.   50.   25. IB001 IB001
                100.     1   20.
                     0     -99  100.    0.
*EXP.DETAILS        
  1KSRT2001 SB ARM 2020 KS, IRRIGATED                                      
*TREATMENTS         
  3 1 1 0 20 IRRIG, ASCE SHORT.....
*CULTIVARS          
   MZ IB1066 PIO 3489        
*FIELDS             
   KSRT0001 RT012001   0.0    0. IB000    0. 100.0 00000 SIL    180. KSFC000004
          38.04000      -101.03000    896.00               1.0  100.   1.0   0.0   -99   -99
*INITIAL CONDITIONS 
   MZ    2000151     0     0  1.00  1.00   0.0     0  0.00  0.00  100.    0.
      5. 0.300 0.100 0.800
     15. 0.300 0.100 0.800
     29. 0.300 0.100 0.800
     43. 0.300 0.100 0.800
     53. 0.300 0.100 0.800
     64. 0.300 0.100 0.800
    132. 0.300 0.100 0.800
    201. 0.300 0.100 0.800
*PLANTING DETAILS   
   2020151     -99   7.6   7.6     S     R   76.  -99.   5.0  -99.  -99. -99.0 -99.0 -99.0
*IRRIGATION         
   0.750   30.   75.  -99. GS000 IR001   0.0
   2020148 IR004  25.4
   2020158 IR004  25.4
   2020167 IR004  25.4
   2020174 IR004  25.4
   2020181 IR004  25.4
   2020230 IR004  25.4
   2020237 IR004  25.4
   2020244 IR004  25.4
   2020251 IR004  25.4
   2020259 IR004  25.4
   2020265 IR004  25.4
*FERTILIZERS        
   2020145 FE005 AP002   10.  255.  -99.  -99.  -99.  -99.   -99
*RESIDUES           
     20166 RE001  1000  0.80  0.00  0.00  100.   15.   -99
*CHEMICALS          
*TILLAGE            
*ENVIRONMENT        
*HARVEST            
*SOIL               
 KSFC000004  SSURGO      SIL    180.   Richfield Silt Loam                             
 Finney      USA          -0.009  -0.099 -99                                               
 BN     0.13   6.0  0.60   61.  1.00  1.00 IB001 IB001 IB001 -99  
    5.       0.202 0.414 0.488 1.000  3.30  1.25 2.050  24.0  58.0   0.0  -9.0  7.20-99.00 19.00-99.00
   15.       0.202 0.414 0.488 1.000  3.30  1.25 2.050  24.0  58.0   0.0  -9.0  7.20-99.00 19.00-99.00
   29.       0.263 0.454 0.517 0.560  1.02  1.18 1.550  39.0  49.0   0.0  -9.0  7.50-99.00 30.00-99.00
   43.       0.263 0.454 0.517 0.560  1.02  1.18 1.550  39.0  49.0   0.0  -9.0  7.50-99.00 30.00-99.00
   53.       0.190 0.388 0.522 0.343  1.02  1.18 0.700  29.0  66.0   0.0  -9.0  7.50-99.00 20.00-99.00
   64.       0.190 0.388 0.522 0.343  1.02  1.18 0.700  29.0  66.0   0.0  -9.0  7.50-99.00 20.00-99.00
  132.       0.168 0.332 0.506 0.071  3.30  1.23 0.450  26.0  53.0   0.0  -9.0  8.40-99.00 17.00-99.00
  201.       0.168 0.332 0.506 0.071  3.30  1.23 0.450  26.0  53.0   0.0  -9.0  8.40-99.00 17.00-99.00
                    
    5.-99.00 -99.0 -99.0 -99.0 -99.0 -99.0 -99.0 -99.0 -99.0 -99.0-99.00 -99.0 -99.0 -99.0 -99.0 -99.0  -99.
   15.-99.00 -99.0 -99.0 -99.0 -99.0 -99.0 -99.0 -99.0 -99.0 -99.0-99.00 -99.0 -99.0 -99.0 -99.0 -99.0  -99.
   29.-99.00 -99.0 -99.0 -99.0 -99.0 -99.0 -99.0 -99.0 -99.0 -99.0-99.00 -99.0 -99.0 -99.0 -99.0 -99.0  -99.
   43.-99.00 -99.0 -99.0 -99.0 -99.0 -99.0 -99.0 -99.0 -99.0 -99.0-99.00 -99.0 -99.0 -99.0 -99.0 -99.0  -99.
   53.-99.00 -99.0 -99.0 -99.0 -99.0 -99.0 -99.0 -99.0 -99.0 -99.0-99.00 -99.0 -99.0 -99.0 -99.0 -99.0  -99.
   64.-99.00 -99.0 -99.0 -99.0 -99.0 -99.0 -99.0 -99.0 -99.0 -99.0-99.00 -99.0 -99.0 -99.0 -99.0 -99.0  -99.
  132.-99.00 -99.0 -99.0 -99.0 -99.0 -99.0 -99.0 -99.0 -99.0 -99.0-99.00 -99.0 -99.0 -99.0 -99.0 -99.0  -99.
  201.-99.00 -99.0 -99.0 -99.0 -99.0 -99.0 -99.0 -99.0 -99.0 -99.0-99.00 -99.0 -99.0 -99.0 -99.0 -99.0  -99.
                    
    5.-99.00-99.00-99.00-99.00
   15.-99.00-99.00-99.00-99.00
   29.-99.00-99.00-99.00-99.00
   43.-99.00-99.00-99.00-99.00
   53.-99.00-99.00-99.00-99.00
   64.-99.00-99.00-99.00-99.00
  132.-99.00-99.00-99.00-99.00
  201.-99.00-99.00-99.00-99.00
*CULTIVAR           
IB1066 PIO 3489         IB0001  225.0 0.600 895.0 875.0  8.80 48.00
