*EXP.DETAILS: KSRT2001SB ARM 2020 KS, IRRIGATED & NON-IRRIGATED                      

*FILES
@N  EXP.DATA    AFILE        ADIR
  3 EXP         KSRT2001.SBA                                                                                 
@N  SPECIES     SPFILE       SPDIR
  3 SPE         MZCER047.SPE ///home/ztz/dssat_kcb/dssat/Genotype/                                           
@N  ECOTYPE     EFILE        EDIR
  3 ECO         MZCER047.ECO ///home/ztz/dssat_kcb/dssat/Genotype/                                           
@N  CULTIVAR    CFILE        CDIR
  3 CUL         MZCER047.CUL ///home/ztz/dssat_kcb/dssat/Genotype/                                           
@N  SOIL        SFILE        SDIR
  3 SOIL        KS.SOL       ///home/ztz/dssat_kcb/dssat/Soil/                                               
@N  WEATHER     WFILE        WDIR
  3 WEATH       RT012001.WTH ///home/ztz/dssat_kcb/dssat/Weather/                                            

*SIMULATION CONTROL
@N  GENERAL     NYERS NREPS START   SDATE RSEED SNAME.................... MODEL...
  3 GE              1     1     S 2020106  2150 ROTH TECH FARM SIMULATION MZCER047
@N  OPTIONS     WATER NITRO SYMBI PHOSP POTAS DISES  CHEM  TILL   CO2
  3 OP              Y     Y     N     N     N     N     N     Y     M
@N  METHODS     WTHER INCON LIGHT EVAPO INFIL PHOTO HYDRO NSWIT SOMDY MESEV MESOL METMP MEGHG
  3 ME              M     M     E     S     S     C     R     1     G     S     2     D     0
@N  MANAGEMENT  PLANT IRRIG FERTI RESID HARVS
  3 MA              R     A     R     N     M
@N  OUTPUTS     FNAME OVVEW SUMRY FROPT GROUT CAOUT WAOUT NIOUT MIOUT DIOUT  LONG CHOUT OPOUT
  3 OU              N     Y     Y     1     Y     Y     Y     Y     N     N     Y     N     Y

!AUTOMATIC MANAGEM
@N  PLANTING      PFRST   PLAST PH2OL PH2OU PH2OD PSTMX PSTMN
  3 PL              -99     -99   40.  100.   30.   40.   10.
@N  IRRIGATION  IMDEP ITHRL ITHRU IROFF IMETH IRAMT IREFF
  3 IR           120.   50.  100. IB004 IB004  25.0 0.750
@N  NITROGEN    NMDEP NMTHR NAMNT NCODE NAOFF
  3 NI            30.   50.   25. IB001 IB001
@N  RESIDUES    RIPCN RTIME RIDEP
  3 RE           100.     1   20.
@N  HARVEST     HFRST   HLAST HPCNP HRCNR
  3 HA              0     -99  100.    0.

*TREATMENTS
@N   R O C TNAME....................  CU  FL  SA  IC  MP  MI  MF  MR  MC  MT  ME  MH  SM
  3  1 1 0 20 IRRIG, ASCE SHORT.....   1   1   0   1   1   1   0   1   0   0   0   0   3

*CULTIVARS
@C  CR INGENO CNAME
  1 MZ IB1066 PIO 3489        

*FIELDS
@L  ID_FIELD WSTA....  FLSA  FLOB  FLDT  FLDD  FLDS  FLST SLTX   SLDP ID_SOIL
  1 KSRT0001 RT012001   0.0    0. IB000    0.  100. 00000 SIL    180. KSFC000004
@L             XCRD            YCRD      ELEV              AREA  SLEN  FLWR  SLAS PRMGT
  1        38.04000      -101.03000    896.00               1.0  100.   1.0   0.0   -99   -99

*INITIAL CONDITIONS
@C  PCR     ICDAT  ICRT  ICND  ICRN  ICRE  ICWD ICRES ICREN ICREP ICRIP ICRID
  1 MZ    2000151     0     0  1.00  1.00   0.0     0  0.00  0.00  100.    0.
@C   ICBL  SH2O  SNH4  SNO3
  1    5. 0.300   0.1   0.8
  1   15. 0.300   0.1   0.8
  1   29. 0.300   0.1   0.8
  1   43. 0.300   0.1   0.8
  1   53. 0.300   0.1   0.8
  1   64. 0.300   0.1   0.8
  1  132. 0.300   0.1   0.8
  1  201. 0.300   0.1   0.8

*PLANTING DETAILS
@P    PDATE   EDATE  PPOP  PPOE  PLME  PLDS  PLRS  PLRD  PLDP  PLWT  PAGE  PENV  PLPH  SPRL
  1 2020151     -99   7.6   7.6     S     R   76.  -99.   5.0  -99.  -99. -99.0 -99.0 -99.0

*IRRIGATION
@I   IEFF  IDEP  ITHR  IEPT  IOFF  IAME  IAMT
  1 0.750   30.   75.  -99. GS000 IR001   0.0
@I    IDATE  IROP IRVAL
  1 2020167 IR004   8.0
  1 2020170 IR004   8.0
  1 2020181 IR004  13.0
  1 2020230 IR004  13.0
  1 2020235 IR004  13.0
  1 2020237 IR004  13.0
  1 2020240 IR004  11.0
  1 2020242 IR004  11.0
  1 2020244 IR004  11.0
  1 2020246 IR004  11.0
  1 2020250 IR004  11.0
  1 2020253 IR004  11.0
  1 2020256 IR004   8.0
  1 2020259 IR004   8.0
  1 2020262 IR004   8.0
  1 2020265 IR004   8.0
  1 2020269 IR004   7.0

*FERTILIZERS
@F    FDATE  FMCD  FACD  FDEP  FAMN  FAMP  FAMK  FAMC  FAMO  FOCD

*RESIDUES
@R    RDATE  RCOD  RAMT  RESN  RESP  RESK  RINP  RDEP  RMET
  1   20166 RE001  1000  0.80  0.00  0.00  100.   15.   -99

*CHEMICALS
@C    CDATE CHCOD CHAMT  CHME CHDEP   CHT

*TILLAGE
@T    TDATE TIMPL  TDEP

*ENVIRONMENT
@E    ODATE  EDAY  ERAD  EMAX  EMIN ERAIN  ECO2  EDEW EWIND

*HARVEST
@H    HDATE  HSTG  HCOM HSIZE   HPC  HBPC
